Circuit: * D:\Facultad\mini whip\amplificador.asc

Warning: Multiple definitions of model "j310" Type: JFET
WARNING: Node NC_01 is floating.
WARNING: Node N009 is floating.

WARNING: Less than two connections to node NC_01.  This node is used by C5.
WARNING: Less than two connections to node N009.  This node is used by C1.
Direct Newton iteration for .op point succeeded.

Date: Thu Sep 07 10:00:45 2023
Total elapsed time: 0.050 seconds.

tnom = 27
temp = 27
method = trap
totiter = 8
traniter = 0
tranpoints = 0
accept = 0
rejected = 0
matrix size = 20
fillins = 11
solver = Normal
Matrix Compiler1:      83 opcodes
Matrix Compiler2: 1.70 KB object code size
