LTspice 24.0.9 for Windows
Circuit: * C:\Users\gazpa\Documents\GitHub\Mini_Whip_UNMDP\Amplificador_MiniWhip_Original_J310\amplificador.asc
Start Time: Sun Apr 28 19:38:33 2024
Warning: Multiple definitions of model "j310" Type: JFET
Warning: Multiple definitions of model "2scr375p" Type: BJT
Warning: Multiple definitions of model "bc857b" Type: BJT
Warning: Multiple definitions of model "bc847c" Type: BJT
Warning: Multiple definitions of model "bc847b" Type: BJT
solver = Normal
Maximum thread count: 4
tnom = 27
temp = 27
method = modified trap
Direct Newton iteration for .op point succeeded.
Total elapsed time: 0.123 seconds.

