Circuit: * D:\Facultad\mini whip\Draft1.asc

Direct Newton iteration for .op point succeeded.

Date: Sat Sep 02 22:35:41 2023
Total elapsed time: 0.080 seconds.

tnom = 27
temp = 27
method = trap
totiter = 6
traniter = 0
tranpoints = 0
accept = 0
rejected = 0
matrix size = 16
fillins = 1
solver = Normal
Matrix Compiler1:      54 opcodes
Matrix Compiler2: 1.24 KB object code size
