Circuit: * D:\Facultad\mini whip\amp segunda opcion\amplificador segunda opcion.asc

Direct Newton iteration for .op point succeeded.

Date: Sat Sep 02 22:48:32 2023
Total elapsed time: 13.100 seconds.

tnom = 27
temp = 27
method = modified trap
totiter = 624299
traniter = 624291
tranpoints = 276784
accept = 177153
rejected = 99631
matrix size = 17
fillins = 1
solver = Normal
Matrix Compiler1: 990 bytes object code size  0.3/0.2/[0.2]
Matrix Compiler2: off  [0.2]/0.2/0.2

