Circuit: * BFT92W SPICE MODEL

Fatal Error: No analysis request found.
