Circuit: * D:\Facultad\mini whip\cuarta opcion mas viable\mosfet 2N7000.asc

WARNING: Node N010 is floating.

WARNING: Less than two connections to node N010.  This node is used by C3.
Direct Newton iteration for .op point succeeded.

Date: Thu Sep 07 09:59:43 2023
Total elapsed time: 0.110 seconds.

tnom = 27
temp = 27
method = trap
totiter = 9
traniter = 0
tranpoints = 0
accept = 0
rejected = 0
matrix size = 20
fillins = 4
solver = Normal
Matrix Compiler1:      69 opcodes
Matrix Compiler2: 1.62 KB object code size
