Circuit: * D:\Facultad\mini whip\amp tercera opcion\amplificador segunda opcion.asc

Direct Newton iteration for .op point succeeded.

Date: Sun Sep 03 10:16:08 2023
Total elapsed time: 0.040 seconds.

tnom = 27
temp = 27
method = trap
totiter = 7
traniter = 0
tranpoints = 0
accept = 0
rejected = 0
matrix size = 17
fillins = 3
solver = Normal
Matrix Compiler1:      61 opcodes
Matrix Compiler2: 1.34 KB object code size
