Circuit: * D:\Facultad\mini whip\amp tercera opcion\Draft1.asc

WARNING: Less than two connections to node NC_01.  This node is used by V3.
Direct Newton iteration for .op point succeeded.

Date: Tue Sep 05 12:59:24 2023
Total elapsed time: 0.116 seconds.

tnom = 27
temp = 27
method = trap
totiter = 9
traniter = 0
tranpoints = 0
accept = 0
rejected = 0
matrix size = 21
fillins = 6
solver = Normal
Matrix Compiler1:      72 opcodes
Matrix Compiler2: 1.65 KB object code size
